         4 
mkqff-eq
   N         -0.0000051847          0.0000000054          0.0826483076
   H          0.4962655586         -0.0000000115         -0.1333866128
   H         -0.2481301953          0.4297825850         -0.1333840088
   H         -0.2481301786         -0.4297825789         -0.1333840125
         4 
mkqff0-0
   N         -0.0000095833          0.0000001970          0.0799420688
   H          0.5159019806         -0.0000398668         -0.0865390304
   H         -0.2579310767          0.4468389674         -0.0863963950
   H         -0.2579686460         -0.4468054420         -0.0864040458
         4 
mkqff0-1
   N         -0.0000007861         -0.0000001861          0.0853545465
   H          0.4766291366          0.0000398438         -0.1802341953
   H         -0.2383293140          0.4127262026         -0.1803716226
   H         -0.2382917111         -0.4127597158         -0.1803639792
         4 
mkqff1-0
   N          0.0002667028         -0.0012107192          0.0826482867
   H          0.4986911590          0.0524285400         -0.1292927735
   H         -0.2291350597          0.4288377487         -0.1512032522
   H         -0.2836491402         -0.4184773509         -0.1196440868
         4 
mkqff1-1
   N         -0.0002770722          0.0012107300          0.0826483285
   H          0.4938399581         -0.0524285630         -0.1374804522
   H         -0.2671253310          0.4307274213         -0.1155647655
   H         -0.2126112169         -0.4410878070         -0.1471239382
         4 
mkqff2-0
   N          0.0012017311          0.0002725237          0.0826471785
   H          0.5069249344         -0.0118010084         -0.1152029612
   H         -0.2909363455          0.4013747737         -0.1389066152
   H         -0.2786782777         -0.4036862448         -0.1460072451
         4 
mkqff2-1
   N         -0.0012121005         -0.0002725128          0.0826494367
   H          0.4856061828          0.0118009854         -0.1515702645
   H         -0.2053240452          0.4581903963         -0.1278614025
   H         -0.2175820794         -0.4558789131         -0.1207607799
         4 
mkqff3-0
   N         -0.0000190463          0.0000024741          0.0831864835
   H          0.5236206879         -0.0000023108         -0.1428561915
   H         -0.2614205141          0.4528199915         -0.1425138519
   H         -0.2614630702         -0.4529451377         -0.1425790742
         4 
mkqff3-1
   N          0.0000086769         -0.0000024632          0.0821101317
   H          0.4689104292          0.0000022878         -0.1239170341
   H         -0.2348398766          0.4067451785         -0.1242541658
   H         -0.2347972870         -0.4066200202         -0.1241889508
         4 
mkqff4-0
   N         -0.0010231254          0.0000810901          0.0826419384
   H          0.5320883837          0.0000824455         -0.1486451991
   H         -0.2383870494          0.4112172460         -0.1245218148
   H         -0.2409489819         -0.4155046210         -0.1266440657
         4 
mkqff4-1
   N          0.0010127560         -0.0000810793          0.0826546768
   H          0.4604427334         -0.0000824685         -0.1181280266
   H         -0.2578733413          0.4483479240         -0.1422462028
   H         -0.2553113752         -0.4440605369         -0.1401239593
         4 
mkqff5-0
   N         -0.0000863249         -0.0010161408          0.0826490011
   H          0.4991780401         -0.0010548007         -0.1346233819
   H         -0.2636267112          0.4553848704         -0.1460817108
   H         -0.2313364095         -0.4016689667         -0.1194863889
         4 
mkqff5-1
   N          0.0000759555          0.0010161517          0.0826476141
   H          0.4933530770          0.0010547777         -0.1321498438
   H         -0.2326336794          0.4041802996         -0.1206863068
   H         -0.2649239476         -0.4578961912         -0.1472816361
