         4 
mkg-eq
   N         -0.0000051847          0.0000000054          0.0826483076
   H          0.4962655586         -0.0000000115         -0.1333866128
   H         -0.2481301953          0.4297825850         -0.1333840088
   H         -0.2481301786         -0.4297825789         -0.1333840125
         4 
mkg-q1-11-0
   N          0.0000270873         -0.0000014001          0.1025038243
   H          0.3521942753          0.0002924043         -0.4771045940
   H         -0.1762217004          0.3046409015         -0.4781293915
   H         -0.1759459163         -0.3048868250         -0.4780732887
         4 
mkg-q1-11-1
   N          0.0000193002         -0.0000010609          0.0977128033
   H          0.3869578407          0.0002218461         -0.3941674379
   H         -0.1935728033          0.3348368642         -0.3949443294
   H         -0.1933635603         -0.3350234463         -0.3949017647
         4 
mkg-q1-11-2
   N          0.0000126378         -0.0000007708          0.0936137061
   H          0.4167008182          0.0001614779         -0.3232081464
   H         -0.2084180431          0.3606718967         -0.3237729347
   H         -0.2082657312         -0.3608077075         -0.3237419530
         4 
mkg-q1-11-3
   N          0.0000064852         -0.0000005028          0.0898282683
   H          0.4441678892          0.0001057291         -0.2576785977
   H         -0.2221273382          0.3845300551         -0.2580475128
   H         -0.2220276011         -0.3846189797         -0.2580272277
         4 
mkg-q1-11-4
   N          0.0000005933         -0.0000002462          0.0862032748
   H          0.4704707789          0.0000523432         -0.1949264936
   H         -0.2352555701          0.4073769947         -0.1951078374
   H         -0.2352061794         -0.4074210203         -0.1950977956
         4 
mkg-q1-11-6
   N         -0.0000109627          0.0000002571          0.0790933405
   H          0.5220603382         -0.0000523661         -0.0718467321
   H         -0.2610048206          0.4521881753         -0.0716601803
   H         -0.2610541777         -0.4521441376         -0.0716702294
         4 
mkg-q1-11-7
   N         -0.0000168546          0.0000005136          0.0754683469
   H          0.5483632280         -0.0001057521         -0.0090946280
   H         -0.2741330525          0.4750351149         -0.0087205049
   H         -0.2742327560         -0.4749461782         -0.0087407973
         4 
mkg-q1-11-8
   N         -0.0000230072          0.0000007816          0.0716829091
   H          0.5758302989         -0.0001615009          0.0564349207
   H         -0.2878423476          0.4988932733          0.0570049170
   H         -0.2879946259         -0.4987574503          0.0569739280
         4 
mkg-q1-11-9
   N         -0.0000296696          0.0000010718          0.0675838120
   H          0.6055732765         -0.0002218690          0.1273942122
   H         -0.3026875874          0.5247283058          0.1281763117
   H         -0.3028967968         -0.5245417115          0.1281337398
         4 
mkg-q1-11-10
   N         -0.0000374567          0.0000014109          0.0627927909
   H          0.6403368418         -0.0002924273          0.2103313683
   H         -0.3200386903          0.5549242685          0.2113613738
   H         -0.3203144408         -0.5546783329          0.2113052637
         4 
mkg-q2-11-0
   N         -0.0020000072          0.0088830214          0.0826484607
   H          0.4784690696         -0.3846652372         -0.1634228737
   H         -0.3874963981          0.4367147942         -0.0026452593
   H          0.0124703719         -0.5127283781         -0.2341930461
         4 
mkg-q2-11-1
   N         -0.0015186681          0.0067396012          0.0826484238
   H          0.4827632592         -0.2918477484         -0.1561752981
   H         -0.3538681413          0.4350420923         -0.0341917616
   H         -0.0504110300         -0.4927140377         -0.2098684107
         4 
mkg-q2-11-2
   N         -0.0011068445          0.0049057357          0.0826483922
   H          0.4864372778         -0.2124350514         -0.1499744244
   H         -0.3250965101          0.4336109636         -0.0611822874
   H         -0.1042110389         -0.4755901877         -0.1890567628
         4 
mkg-q2-11-3
   N         -0.0007265332          0.0032121961          0.0826483630
   H          0.4898301637         -0.1390989444         -0.1442480361
   H         -0.2985264589          0.4322893437         -0.0861075218
   H         -0.1538943182         -0.4597766397         -0.1698376040
         4 
mkg-q2-11-4
   N         -0.0003623413          0.0015904365          0.0826483350
   H          0.4930792434         -0.0688711599         -0.1387643586
   H         -0.2730825690          0.4310237401         -0.1099763098
   H         -0.2014717909         -0.4446333428         -0.1514330418
         4 
mkg-q2-11-6
   N          0.0003519719         -0.0015904256          0.0826482802
   H          0.4994518737          0.0688711370         -0.1280088671
   H         -0.2231778217          0.4285414299         -0.1567917079
   H         -0.2947885662         -0.4149318150         -0.1153349832
         4 
mkg-q2-11-7
   N          0.0007161638         -0.0032121852          0.0826482522
   H          0.5027009535          0.1390989215         -0.1225251896
   H         -0.1977339318          0.4272758263         -0.1806604959
   H         -0.3423660389         -0.3997885181         -0.0969304210
         4 
mkg-q2-11-8
   N          0.0010964751         -0.0049057249          0.0826482231
   H          0.5060938394          0.2124350284         -0.1167988013
   H         -0.1711638806          0.4259542064         -0.2055857303
   H         -0.3920493182         -0.3839749702         -0.0777112621
         4 
mkg-q2-11-9
   N          0.0015082987         -0.0067395903          0.0826481914
   H          0.5097678580          0.2918477254         -0.1105979276
   H         -0.1423922493          0.4245230777         -0.2325762561
   H         -0.4458493271         -0.3668511202         -0.0568996142
         4 
mkg-q2-11-10
   N          0.0019896378         -0.0088830106          0.0826481545
   H          0.5140620476          0.3846652142         -0.1033503520
   H         -0.1087639926          0.4228503758         -0.2641227583
   H         -0.5087307290         -0.3468367797         -0.0325749789
         4 
mkg-q2q1-11-0
   N         -0.0019677353          0.0088816159          0.1025039775
   H          0.3343977863         -0.3843728214         -0.5071408549
   H         -0.3155879031          0.3115731107         -0.3473906420
   H          0.0846546341         -0.3878326242         -0.5788823223
         4 
mkg-q2q1-11-1
   N         -0.0019755223          0.0088819551          0.0977129564
   H          0.3691613517         -0.3844433797         -0.4242036988
   H         -0.3329390060          0.3417690734         -0.2642055799
   H          0.0672369902         -0.4179692455         -0.4957107983
         4 
mkg-q2q1-11-2
   N         -0.0019821847          0.0088822452          0.0936138592
   H          0.3989043292         -0.3845037478         -0.3532444073
   H         -0.3477842458          0.3676041058         -0.1930341852
   H          0.0523348192         -0.4437535067         -0.4245509866
         4 
mkg-q2q1-11-3
   N         -0.0019883373          0.0088825132          0.0898284214
   H          0.4263714001         -0.3845594966         -0.2877148586
   H         -0.3614935409          0.3914622643         -0.1273087633
   H          0.0385729494         -0.4675647789         -0.3588362613
         4 
mkg-q2q1-11-4
   N         -0.0019942292          0.0088827698          0.0862034279
   H          0.4526742899         -0.3846128826         -0.2249627544
   H         -0.3746217728          0.4143092039         -0.0643690879
   H          0.0253943711         -0.4903668195         -0.2959068292
         4 
mkg-q2q1-11-6
   N         -0.0020057852          0.0088832731          0.0790934936
   H          0.5042638492         -0.3847175918         -0.1018829930
   H         -0.4003710233          0.4591203845          0.0590785692
   H         -0.0004536272         -0.5350899368         -0.1724792630
         4 
mkg-q2q1-11-7
   N         -0.0020116771          0.0088835296          0.0754685001
   H          0.5305667390         -0.3847709778         -0.0391308888
   H         -0.4134992552          0.4819673241          0.1220182446
   H         -0.0136322055         -0.5578919774         -0.1095498309
         4 
mkg-q2q1-11-8
   N         -0.0020178297          0.0088837976          0.0716830622
   H          0.5580338099         -0.3848267266          0.0263986599
   H         -0.4272085503          0.5058254825          0.1877436665
   H         -0.0273940754         -0.5817032495         -0.0438351056
         4 
mkg-q2q1-11-9
   N         -0.0020244921          0.0088840878          0.0675839651
   H          0.5877767874         -0.3848870947          0.0973579514
   H         -0.4420537901          0.5316605150          0.2589150612
   H         -0.0422962463         -0.6074875107          0.0273247061
         4 
mkg-q2q1-11-10
   N         -0.0020322792          0.0088844269          0.0627929440
   H          0.6225403528         -0.3849576530          0.1802951075
   H         -0.4594048930          0.5618564777          0.3421001233
   H         -0.0597138903         -0.6376241321          0.1104962301
         4 
mkg-q2q1-11-11
   N         -0.0014863961          0.0067381957          0.1025039405
   H          0.3386919759         -0.2915553326         -0.4998932793
   H         -0.2819596464          0.3099004088         -0.3789371443
   H          0.0217732322         -0.3678182837         -0.5545576870
         4 
mkg-q2q1-11-12
   N         -0.0014941832          0.0067385348          0.0977129194
   H          0.3734555413         -0.2916258908         -0.4169561232
   H         -0.2993107493          0.3400963715         -0.2957520822
   H          0.0043555882         -0.3979549051         -0.4713861630
         4 
mkg-q2q1-11-13
   N         -0.0015008456          0.0067388250          0.0936138223
   H          0.4031985188         -0.2916862590         -0.3459968317
   H         -0.3141559891          0.3659314040         -0.2245806875
   H         -0.0105465827         -0.4237391663         -0.4002263513
         4 
mkg-q2q1-11-14
   N         -0.0015069982          0.0067390929          0.0898283845
   H          0.4306655898         -0.2917420078         -0.2804672830
   H         -0.3278652842          0.3897895624         -0.1588552655
   H         -0.0243084526         -0.4475504384         -0.3345116260
         4 
mkg-q2q1-11-15
   N         -0.0015128901          0.0067393495          0.0862033909
   H          0.4569684795         -0.2917953937         -0.2177151788
   H         -0.3409935161          0.4126365020         -0.0959155901
   H         -0.0374870309         -0.4703524790         -0.2715821939
         4 
mkg-q2q1-11-17
   N         -0.0015244461          0.0067398528          0.0790934566
   H          0.5085580388         -0.2919001030         -0.0946354174
   H         -0.3667427666          0.4574476826          0.0275320669
   H         -0.0633350291         -0.5150755963         -0.1481546276
         4 
mkg-q2q1-11-18
   N         -0.0015303380          0.0067401094          0.0754684631
   H          0.5348609286         -0.2919534890         -0.0318833132
   H         -0.3798709985          0.4802946222          0.0904717423
   H         -0.0765136075         -0.5378776369         -0.0852251955
         4 
mkg-q2q1-11-19
   N         -0.0015364906          0.0067403773          0.0716830253
   H          0.5623279995         -0.2920092378          0.0336462355
   H         -0.3935802936          0.5041527806          0.1561971642
   H         -0.0902754773         -0.5616889091         -0.0195104702
         4 
mkg-q2q1-11-20
   N         -0.0015431530          0.0067406675          0.0675839281
   H          0.5920709771         -0.2920696059          0.1046055270
   H         -0.4084255334          0.5299878131          0.2273685589
   H         -0.1051776483         -0.5874731703          0.0516493415
         4 
mkg-q2q1-11-21
   N         -0.0015509401          0.0067410066          0.0627929071
   H          0.6268345424         -0.2921401642          0.1875426831
   H         -0.4257766363          0.5601837758          0.3105536211
   H         -0.1225952922         -0.6176097916          0.1348208655
         4 
mkg-q2q1-11-22
   N         -0.0010745725          0.0049043303          0.1025039089
   H          0.3423659945         -0.2121426356         -0.4936924056
   H         -0.2531880151          0.3084692802         -0.4059276701
   H         -0.0320267767         -0.3506944338         -0.5337460391
         4 
mkg-q2q1-11-23
   N         -0.0010823595          0.0049046694          0.0977128878
   H          0.3771295599         -0.2122131939         -0.4107552495
   H         -0.2705391181          0.3386652429         -0.3227426080
   H         -0.0494444206         -0.3808310551         -0.4505745151
         4 
mkg-q2q1-11-24
   N         -0.0010890220          0.0049049595          0.0936137907
   H          0.4068725374         -0.2122735620         -0.3397959580
   H         -0.2853843579          0.3645002753         -0.2515712133
   H         -0.0643465916         -0.4066153163         -0.3794147034
         4 
mkg-q2q1-11-25
   N         -0.0010951746          0.0049052275          0.0898283528
   H          0.4343396083         -0.2123293108         -0.2742664093
   H         -0.2990936529          0.3883584337         -0.1858457913
   H         -0.0781084614         -0.4304265884         -0.3136999781
         4 
mkg-q2q1-11-26
   N         -0.0011010664          0.0049054841          0.0862033593
   H          0.4606424981         -0.2123826968         -0.2115143051
   H         -0.3122218848          0.4112053733         -0.1229061159
   H         -0.0912870398         -0.4532286290         -0.2507705460
         4 
mkg-q2q1-11-28
   N         -0.0011126225          0.0049059874          0.0790934250
   H          0.5122320574         -0.2124874061         -0.0884345437
   H         -0.3379711354          0.4560165540          0.0005415411
   H         -0.1171350380         -0.4979517464         -0.1273429797
         4 
mkg-q2q1-11-29
   N         -0.0011185143          0.0049062440          0.0754684315
   H          0.5385349472         -0.2125407920         -0.0256824395
   H         -0.3510993673          0.4788634936          0.0634812165
   H         -0.1303136163         -0.5207537870         -0.0644135476
         4 
mkg-q2q1-11-30
   N         -0.0011246670          0.0049065119          0.0716829937
   H          0.5660020181         -0.2125965408          0.0398471092
   H         -0.3648086623          0.5027216520          0.1292066384
   H         -0.1440754862         -0.5445650591          0.0013011777
         4 
mkg-q2q1-11-31
   N         -0.0011313294          0.0049068021          0.0675838965
   H          0.5957449956         -0.2126569090          0.1108064007
   H         -0.3796539021          0.5285566844          0.2003780331
   H         -0.1589776571         -0.5703493203          0.0724609894
         4 
mkg-q2q1-11-32
   N         -0.0011391164          0.0049071412          0.0627928754
   H          0.6305085610         -0.2127274672          0.1937435568
   H         -0.3970050051          0.5587526471          0.2835630953
   H         -0.1763953011         -0.6004859416          0.1556325134
         4 
mkg-q2q1-11-33
   N         -0.0006942612          0.0032107906          0.1025038797
   H          0.3457588804         -0.1388065287         -0.4879660173
   H         -0.2266179639          0.3071476602         -0.4308529045
   H         -0.0817100560         -0.3348808858         -0.5145268802
         4 
mkg-q2q1-11-34
   N         -0.0007020483          0.0032111297          0.0977128586
   H          0.3805224458         -0.1388770869         -0.4050288612
   H         -0.2439690668          0.3373436229         -0.3476678424
   H         -0.0991276999         -0.3650175071         -0.4313553563
         4 
mkg-q2q1-11-35
   N         -0.0007087107          0.0032114199          0.0936137615
   H          0.4102654233         -0.1389374550         -0.3340695697
   H         -0.2588143066          0.3631786554         -0.2764964477
   H         -0.1140298709         -0.3908017683         -0.3601955445
         4 
mkg-q2q1-11-36
   N         -0.0007148633          0.0032116878          0.0898283237
   H          0.4377324943         -0.1389932039         -0.2685400210
   H         -0.2725236017          0.3870368138         -0.2107710257
   H         -0.1277917407         -0.4146130405         -0.2944808192
         4 
mkg-q2q1-11-37
   N         -0.0007207552          0.0032119444          0.0862033301
   H          0.4640353840         -0.1390465898         -0.2057879168
   H         -0.2856518336          0.4098837534         -0.1478313503
   H         -0.1409703191         -0.4374150810         -0.2315513871
         4 
mkg-q2q1-11-39
   N         -0.0007323112          0.0032124477          0.0790933958
   H          0.5156249433         -0.1391512991         -0.0827081554
   H         -0.3114010841          0.4546949340         -0.0243836933
   H         -0.1668183173         -0.4821381984         -0.1081238209
         4 
mkg-q2q1-11-40
   N         -0.0007382031          0.0032127043          0.0754684023
   H          0.5419278331         -0.1392046850         -0.0199560512
   H         -0.3245293160          0.4775418736          0.0385559821
   H         -0.1799968956         -0.5049402390         -0.0451943888
         4 
mkg-q2q1-11-41
   N         -0.0007443557          0.0032129723          0.0716829645
   H          0.5693949040         -0.1392604338          0.0455734975
   H         -0.3382386111          0.5014000320          0.1042814040
   H         -0.1937587655         -0.5287515111          0.0205203365
         4 
mkg-q2q1-11-42
   N         -0.0007510181          0.0032132624          0.0675838673
   H          0.5991378815         -0.1393208020          0.1165327890
   H         -0.3530838509          0.5272350645          0.1754527987
   H         -0.2086609364         -0.5545357723          0.0916801482
         4 
mkg-q2q1-11-43
   N         -0.0007588052          0.0032136015          0.0627928462
   H          0.6339014469         -0.1393913602          0.1994699451
   H         -0.3704349538          0.5574310272          0.2586378609
   H         -0.2260785804         -0.5846723937          0.1748516722
         4 
mkg-q2q1-11-44
   N         -0.0003300693          0.0015890310          0.1025038518
   H          0.3490079602         -0.0685787442         -0.4824823398
   H         -0.2011740740          0.3058820566         -0.4547216925
   H         -0.1292875287         -0.3197375889         -0.4961223180
         4 
mkg-q2q1-11-45
   N         -0.0003378564          0.0015893701          0.0977128307
   H          0.3837715256         -0.0686493024         -0.3995451837
   H         -0.2185251769          0.3360780193         -0.3715366304
   H         -0.1467051727         -0.3498742102         -0.4129507940
         4 
mkg-q2q1-11-46
   N         -0.0003445188          0.0015896603          0.0936137335
   H          0.4135145031         -0.0687096705         -0.3285858922
   H         -0.2333704167          0.3619130518         -0.3003652357
   H         -0.1616073436         -0.3756584714         -0.3417909823
         4 
mkg-q2q1-11-47
   N         -0.0003506714          0.0015899282          0.0898282957
   H          0.4409815740         -0.0687654194         -0.2630563435
   H         -0.2470797118          0.3857712102         -0.2346398137
   H         -0.1753692135         -0.3994697436         -0.2760762570
         4 
mkg-q2q1-11-48
   N         -0.0003565633          0.0015901848          0.0862033022
   H          0.4672844638         -0.0688188053         -0.2003042393
   H         -0.2602079437          0.4086181498         -0.1717001383
   H         -0.1885477918         -0.4222717842         -0.2131468249
         4 
mkg-q2q1-11-50
   N         -0.0003681193          0.0015906881          0.0790933679
   H          0.5188740231         -0.0689235146         -0.0772244779
   H         -0.2859571942          0.4534293304         -0.0482524813
   H         -0.2143957901         -0.4669949015         -0.0897192586
         4 
mkg-q2q1-11-51
   N         -0.0003740112          0.0015909447          0.0754683744
   H          0.5451769129         -0.0689769005         -0.0144723737
   H         -0.2990854261          0.4762762700          0.0146871941
   H         -0.2275743684         -0.4897969421         -0.0267898265
         4 
mkg-q2q1-11-52
   N         -0.0003801638          0.0015912126          0.0716829365
   H          0.5726439838         -0.0690326493          0.0510571750
   H         -0.3127947212          0.5001344284          0.0804126160
   H         -0.2413362383         -0.5136082142          0.0389248988
         4 
mkg-q2q1-11-53
   N         -0.0003868262          0.0015915028          0.0675838394
   H          0.6023869613         -0.0690930175          0.1220164665
   H         -0.3276399610          0.5259694609          0.1515840107
   H         -0.2562384092         -0.5393924755          0.1100847105
         4 
mkg-q2q1-11-54
   N         -0.0003946132          0.0015918419          0.0627928183
   H          0.6371505267         -0.0691635757          0.2049536226
   H         -0.3449910639          0.5561654236          0.2347690729
   H         -0.2736560531         -0.5695290968          0.1932562344
         4 
mkg-q2q1-11-66
   N          0.0003842438         -0.0015918311          0.1025037969
   H          0.3553805905          0.0691635527         -0.4717268483
   H         -0.1512693267          0.3033997464         -0.5015370905
   H         -0.2226043040         -0.2900360611         -0.4600242594
         4 
mkg-q2q1-11-67
   N          0.0003764568         -0.0015914920          0.0977127759
   H          0.3901441559          0.0690929945         -0.3887896922
   H         -0.1686204297          0.3335957091         -0.4183520284
   H         -0.2400219479         -0.3201726824         -0.3768527355
         4 
mkg-q2q1-11-68
   N          0.0003697944         -0.0015912018          0.0936136787
   H          0.4198871334          0.0690326264         -0.3178304007
   H         -0.1834656695          0.3594307416         -0.3471806337
   H         -0.2549241188         -0.3459569436         -0.3056929237
         4 
mkg-q2q1-11-69
   N          0.0003636418         -0.0015909339          0.0898282409
   H          0.4473542043          0.0689768775         -0.2523008520
   H         -0.1971749645          0.3832889000         -0.2814552118
   H         -0.2686859887         -0.3697682158         -0.2399781985
         4 
mkg-q2q1-11-70
   N          0.0003577499         -0.0015906773          0.0862032474
   H          0.4736570941          0.0689234916         -0.1895487478
   H         -0.2103031964          0.4061358396         -0.2185155364
   H         -0.2818645670         -0.3925702564         -0.1770487663
         4 
mkg-q2q1-11-72
   N          0.0003461939         -0.0015901740          0.0790933131
   H          0.5252466534          0.0688187823         -0.0664689864
   H         -0.2360524470          0.4509470202         -0.0950678793
   H         -0.3077125653         -0.4372933737         -0.0536212001
         4 
mkg-q2q1-11-73
   N          0.0003403020         -0.0015899174          0.0754683195
   H          0.5515495432          0.0687653964         -0.0037168822
   H         -0.2491806789          0.4737939598         -0.0321282039
   H         -0.3208911436         -0.4600954143          0.0093082320
         4 
mkg-q2q1-11-74
   N          0.0003341494         -0.0015896494          0.0716828817
   H          0.5790166141          0.0687096476          0.0618126665
   H         -0.2628899739          0.4976521182          0.0335972180
   H         -0.3346530135         -0.4839066864          0.0750229573
         4 
mkg-q2q1-11-75
   N          0.0003274870         -0.0015893593          0.0675837845
   H          0.6087595916          0.0686492794          0.1327719580
   H         -0.2777352137          0.5234871507          0.1047686127
   H         -0.3495551844         -0.5096909476          0.1461827690
         4 
mkg-q2q1-11-76
   N          0.0003196999         -0.0015890201          0.0627927635
   H          0.6435231570          0.0685787212          0.2157091141
   H         -0.2950863167          0.5536831134          0.1879536748
   H         -0.3669728284         -0.5398275690          0.2293542930
         4 
mkg-q2q1-11-77
   N          0.0007484358         -0.0032135907          0.1025037690
   H          0.3586296702          0.1393913372         -0.4662431707
   H         -0.1258254368          0.3021341428         -0.5254058785
   H         -0.2701817767         -0.2748927642         -0.4416196972
         4 
mkg-q2q1-11-78
   N          0.0007406487         -0.0032132516          0.0977127479
   H          0.3933932356          0.1393207790         -0.3833060146
   H         -0.1431765398          0.3323301055         -0.4422208164
   H         -0.2875994207         -0.3050293855         -0.3584481732
         4 
mkg-q2q1-11-79
   N          0.0007339863         -0.0032129614          0.0936136508
   H          0.4231362131          0.1392604109         -0.3123467231
   H         -0.1580217796          0.3581651380         -0.3710494217
   H         -0.3025015916         -0.3308136467         -0.2872883615
         4 
mkg-q2q1-11-80
   N          0.0007278337         -0.0032126935          0.0898282129
   H          0.4506032841          0.1392046620         -0.2468171745
   H         -0.1717310746          0.3820232964         -0.3053239998
   H         -0.3162634615         -0.3546249189         -0.2215736362
         4 
mkg-q2q1-11-81
   N          0.0007219418         -0.0032124369          0.0862032194
   H          0.4769061738          0.1391512761         -0.1840650703
   H         -0.1848593065          0.4048702360         -0.2423843244
   H         -0.3294420398         -0.3774269595         -0.1586442041
         4 
mkg-q2q1-11-83
   N          0.0007103858         -0.0032119336          0.0790932851
   H          0.5284957331          0.1390465668         -0.0609853088
   H         -0.2106085571          0.4496814166         -0.1189366673
   H         -0.3552900380         -0.4221500768         -0.0352166379
         4 
mkg-q2q1-11-84
   N          0.0007044939         -0.0032116770          0.0754682916
   H          0.5547986229          0.1389931809          0.0017667953
   H         -0.2237367890          0.4725283562         -0.0559969919
   H         -0.3684686164         -0.4449521174          0.0277127943
         4 
mkg-q2q1-11-85
   N          0.0006983413         -0.0032114091          0.0716828537
   H          0.5822656938          0.1389374321          0.0672963440
   H         -0.2374460840          0.4963865146          0.0097284300
   H         -0.3822304862         -0.4687633895          0.0934275195
         4 
mkg-q2q1-11-86
   N          0.0006916789         -0.0032111189          0.0675837566
   H          0.6120086714          0.1388770639          0.1382556355
   H         -0.2522913238          0.5222215471          0.0808998247
   H         -0.3971326572         -0.4945476508          0.1645873313
         4 
mkg-q2q1-11-87
   N          0.0006838918         -0.0032107798          0.0627927355
   H          0.6467722367          0.1388065057          0.2211927916
   H         -0.2696424268          0.5524175098          0.1640848868
   H         -0.4145503011         -0.5246842721          0.2477588552
         4 
mkg-q2q1-11-88
   N          0.0011287470         -0.0049071304          0.1025037398
   H          0.3620225562          0.2127274442         -0.4605167825
   H         -0.0992553856          0.3008125229         -0.5503311129
   H         -0.3198650560         -0.2590792162         -0.4224005384
         4 
mkg-q2q1-11-89
   N          0.0011209600         -0.0049067912          0.0977127187
   H          0.3967861215          0.2126568860         -0.3775796264
   H         -0.1166064885          0.3310084856         -0.4671460508
   H         -0.3372827000         -0.2892158375         -0.3392290144
         4 
mkg-q2q1-11-90
   N          0.0011142976         -0.0049065011          0.0936136216
   H          0.4265290990          0.2125965178         -0.3066203349
   H         -0.1314517283          0.3568435180         -0.3959746561
   H         -0.3521848709         -0.3150000988         -0.2680692027
         4 
mkg-q2q1-11-91
   N          0.0011081449         -0.0049062331          0.0898281837
   H          0.4539961700          0.2125407690         -0.2410907862
   H         -0.1451610234          0.3807016764         -0.3302492342
   H         -0.3659467408         -0.3388113709         -0.2023544774
         4 
mkg-q2q1-11-92
   N          0.0011022531         -0.0049059765          0.0862031902
   H          0.4802990597          0.2124873831         -0.1783386820
   H         -0.1582892553          0.4035486160         -0.2673095588
   H         -0.3791253191         -0.3616134115         -0.1394250453
         4 
mkg-q2q1-11-94
   N          0.0010906970         -0.0049054733          0.0790932559
   H          0.5318886190          0.2123826738         -0.0552589206
   H         -0.1840385058          0.4483597967         -0.1438619017
   H         -0.4049733174         -0.4063365288         -0.0159974790
         4 
mkg-q2q1-11-95
   N          0.0010848052         -0.0049052167          0.0754682624
   H          0.5581915088          0.2123292879          0.0074931836
   H         -0.1971667377          0.4712067363         -0.0809222263
   H         -0.4181518957         -0.4291385694          0.0469319531
         4 
mkg-q2q1-11-96
   N          0.0010786526         -0.0049049487          0.0716828246
   H          0.5856585798          0.2122735390          0.0730227323
   H         -0.2108760328          0.4950648947         -0.0151968044
   H         -0.4319137656         -0.4529498416          0.1126466784
         4 
mkg-q2q1-11-97
   N          0.0010719901         -0.0049046586          0.0675837274
   H          0.6154015573          0.2122131709          0.1439820238
   H         -0.2257212726          0.5208999271          0.0559745903
   H         -0.4468159365         -0.4787341028          0.1838064901
         4 
mkg-q2q1-11-98
   N          0.0010642031         -0.0049043194          0.0627927063
   H          0.6501651226          0.2121426127          0.2269191799
   H         -0.2430723755          0.5510958898          0.1391596524
   H         -0.4642335804         -0.5088707241          0.2669780141
         4 
mkg-q2q1-11-99
   N          0.0015405707         -0.0067409958          0.1025037082
   H          0.3656965747          0.2921401412         -0.4543159088
   H         -0.0704837544          0.2993813942         -0.5773216387
   H         -0.3736650649         -0.2419553662         -0.4015888904
         4 
mkg-q2q1-11-100
   N          0.0015327836         -0.0067406567          0.0977126871
   H          0.4004601401          0.2920695829         -0.3713787527
   H         -0.0878348573          0.3295773569         -0.4941365766
   H         -0.3910827088         -0.2720919876         -0.3184173665
         4 
mkg-q2q1-11-101
   N          0.0015261212         -0.0067403665          0.0936135900
   H          0.4302031176          0.2920092148         -0.3004194612
   H         -0.1026800971          0.3554123894         -0.4229651819
   H         -0.4059848798         -0.2978762488         -0.2472575548
         4 
mkg-q2q1-11-102
   N          0.0015199686         -0.0067400986          0.0898281521
   H          0.4576701886          0.2919534660         -0.2348899125
   H         -0.1163893922          0.3792705478         -0.3572397600
   H         -0.4197467496         -0.3216875209         -0.1815428295
         4 
mkg-q2q1-11-103
   N          0.0015140767         -0.0067398420          0.0862031586
   H          0.4839730783          0.2919000800         -0.1721378083
   H         -0.1295176241          0.4021174874         -0.2943000846
   H         -0.4329253280         -0.3444895615         -0.1186133974
         4 
mkg-q2q1-11-105
   N          0.0015025207         -0.0067393387          0.0790932243
   H          0.5355626376          0.2917953708         -0.0490580469
   H         -0.1552668746          0.4469286680         -0.1708524275
   H         -0.4587733262         -0.3892126789          0.0048141689
         4 
mkg-q2q1-11-106
   N          0.0014966288         -0.0067390821          0.0754682308
   H          0.5618655274          0.2917419848          0.0136940573
   H         -0.1683951065          0.4697756076         -0.1079127521
   H         -0.4719519045         -0.4120147195          0.0677436010
         4 
mkg-q2q1-11-107
   N          0.0014904762         -0.0067388141          0.0716827929
   H          0.5893325983          0.2916862360          0.0792236060
   H         -0.1821044015          0.4936337660         -0.0421873302
   H         -0.4857137744         -0.4358259916          0.1334583263
         4 
mkg-q2q1-11-108
   N          0.0014838138         -0.0067385240          0.0675836958
   H          0.6190755759          0.2916258679          0.1501828975
   H         -0.1969496414          0.5194687985          0.0289840645
   H         -0.5006159453         -0.4616102528          0.2046181380
         4 
mkg-q2q1-11-109
   N          0.0014760267         -0.0067381849          0.0627926747
   H          0.6538391412          0.2915553096          0.2331200536
   H         -0.2143007443          0.5496647612          0.1121691266
   H         -0.5180335893         -0.4917468741          0.2877896620
         4 
mkg-q2q1-11-110
   N          0.0020219098         -0.0088844160          0.1025036712
   H          0.3699907644          0.3849576300         -0.4470683332
   H         -0.0368554976          0.2977086924         -0.6088681410
   H         -0.4365464668         -0.2219410258         -0.3772642551
         4 
mkg-q2q1-11-111
   N          0.0020141227         -0.0088840769          0.0977126502
   H          0.4047543297          0.3848870718         -0.3641311771
   H         -0.0542066006          0.3279046551         -0.5256830789
   H         -0.4539641108         -0.2520776471         -0.2940927311
         4 
mkg-q2q1-11-112
   N          0.0020074603         -0.0088837868          0.0936135530
   H          0.4344973072          0.3848267036         -0.2931718856
   H         -0.0690518404          0.3537396875         -0.4545116842
   H         -0.4688662817         -0.2778619083         -0.2229329194
         4 
mkg-q2q1-11-113
   N          0.0020013077         -0.0088835188          0.0898281152
   H          0.4619643782          0.3847709548         -0.2276423369
   H         -0.0827611354          0.3775978459         -0.3887862622
   H         -0.4826281516         -0.3016731805         -0.1572181941
         4 
mkg-q2q1-11-114
   N          0.0019954158         -0.0088832622          0.0862031217
   H          0.4882672680          0.3847175689         -0.1648902327
   H         -0.0958893673          0.4004447855         -0.3258465869
   H         -0.4958067299         -0.3244752211         -0.0942887620
         4 
mkg-q2q1-11-116
   N          0.0019838598         -0.0088827589          0.0790931874
   H          0.5398568273          0.3846128596         -0.0418104713
   H         -0.1216386179          0.4452559662         -0.2023989298
   H         -0.5216547282         -0.3691983384          0.0291388042
         4 
mkg-q2q1-11-117
   N          0.0019779679         -0.0088825023          0.0754681938
   H          0.5661597170          0.3845594736          0.0209416329
   H         -0.1347668498          0.4681029058         -0.1394592544
   H         -0.5348333065         -0.3920003790          0.0920682364
         4 
mkg-q2q1-11-118
   N          0.0019718153         -0.0088822344          0.0716827560
   H          0.5936267880          0.3845037248          0.0864711816
   H         -0.1484761448          0.4919610642         -0.0737338325
   H         -0.5485951764         -0.4158116511          0.1577829616
         4 
mkg-q2q1-11-119
   N          0.0019651529         -0.0088819442          0.0675836588
   H          0.6233697655          0.3844433567          0.1574304731
   H         -0.1633213846          0.5177960966         -0.0025624378
   H         -0.5634973473         -0.4415959124          0.2289427734
         4 
mkg-q2q1-11-120
   N          0.0019573659         -0.0088816051          0.0627926378
   H          0.6581333308          0.3843727984          0.2403676292
   H         -0.1806724876          0.5479920593          0.0806226244
   H         -0.5809149912         -0.4717325337          0.3121142973 

